*Node
      1, -0.00801271014, -0.00263323495, -0.0588776432
      2, -0.00854127109, -0.00274995831, -0.058690574
      3, -0.00854127109, 0.00108994672, -0.058690574
      4, -0.00801271014, 0.00112275034, -0.0588776432
      5, -0.00745251868, -0.00249556056, -0.0589590557
      6, -0.0076096761, 0.000921349972, -0.0589476191
      7, -0.00756598124, 0.000888329232, -0.0589516759
      8, -0.00745251868, 0.000852024707, -0.0589590557
      9, -0.00757808983, 0.00117859838, -0.058916036
     10, 0.00684686285, 0.00362654217, -0.0586154647
     11, 0.0068555777, 0.00280334917, -0.0592531115
     12, 0.00737904571, 0.00278544798, -0.059263736
     13, 0.00737904571, 0.000419033313, -0.059263736
     14, -0.00731192157, -0.00245357165, -0.0589653514
     15, -0.00711982651, -0.00300517073, -0.0586917624
     16, 0.00766301202, 0.000434154208, -0.0592564344
     17, 0.00771549018, -5.95627498e-05, -0.0590534359
     18, 0.0103359185, 0.000985821825, -0.0570635907
     19,  0.009767293, 0.000192743435, -0.0570635907
     20, 0.00757808983, -0.00117859838, -0.058916036
** ... 16976 like lines cut
*Element, type=C3D4
    1,  7056,  7057,  7058,  7059
    2,  7060,  7061,  7062,  7063
    3,  7058,  7064,  7065,  7059
    4,  7066,  7067,  7068,  7069
    5,  7066,  7068,  7070,  7071
    6,  7072,  7073,  7074,  7066
    7,  7066,  7070,  7067,  7072
    8,  7066,  7075,  7076,  7077
    9,  7066,  7076,  7078,  7074
   10,  7066,  7073,  7074,  7079
   11,  7080,  7081,  7064,  7082
   12,  7080,  7057,  7064,  7083
   13,  7080,  7064,  7084,  7083
   14,  7080,  7085,  7086,  7087
   15,  7088,  7089,  7090,  7091
   16,  7080,  7092,  7064,  7057
   17,  7080,  7064,  7092,  7082
   18,  7093,  3421,  7094,  3446
   19,  7057,  7095,  7058,  7064
   20,  7059,  7057,  7058,  7064
** ... 80905 like lines cut
*Nset, nset=Set-1, generate
     1,  16996,      1
*Elset, elset=Set-1, generate
     1,  80925,      1
*Solid Section,elset=Set-1,material=Material-1
,
*Nset, nset=X
 3010,
*Nset, nset=XYZ
 11377,
*Nset, nset=YZ
 6247,
*Elset, elset=_Surf-101_S3
    43,    65,   125,   141,   232,   242,   257,   365,   425,   467,   623,   736,   738,   780,  1071,  1271
  1272,  1642,  1693,  1723,  1812,  1883,  2264,  2449,  2491,  2568,  2845,  2864,  2873,  3047,  3060,  3139
  3168,  3471,  3513,  3557,  3701,  3751,  3861,  3863,  4103,  4143,  4150,  4730,  4835,  5086,  5184,  5208
  5645,  6313,  6571,  6853,  6926,  7025,  7143,  7176,  7355,  7664,  7995,  8083,  8103,  8214,  8220,  8365
  8370,  8395,  8692,  8704,  8896,  8927,  9030,  9038,  9109,  9115,  9120,  9122,  9125,  9274,  9278,  9447
  9583,  9644,  9913,  9918,  9928,  9930,  9934,  9935,  9938,  9942,  9943,  9946,  9962,  9972,  9974,  9981
 10016, 10017, 10024, 10032, 10036, 10042, 10049, 10055, 10056, 10060, 10082, 10094, 10109, 10113, 10114, 10116
 10127, 10139, 10141, 10142, 10146, 10160, 10162, 10172, 10185, 10188, 10193, 10197, 10208, 10211, 10212, 10224
 10225, 10227, 10232, 10241, 10244, 10245, 10248, 10258, 10261, 10262, 10264, 10265, 10266, 10278, 10279, 10282
 10288, 10292, 10294, 10298, 10301, 10304, 10310, 10312, 10313, 10321, 10322, 10328, 10330, 10343, 10344, 10345
 10354, 10355, 10365, 10373, 10378, 10379, 10394, 10397, 10401, 10403, 10404, 10407, 10409, 10425, 10430, 10438
 10440, 10448, 10452, 10458, 10460, 10461, 10462, 10464, 10467, 10468, 10469, 10479, 10481, 10484, 10487, 10488
 10498, 10500, 10504, 10508, 10512, 10516, 10520, 10524, 10525, 10532, 10535, 10539, 10547, 10548, 10549, 10552
 10554, 10566, 10567, 10572, 10573, 10576, 10595, 10596, 10607, 10615, 10616, 10628, 10637, 10640, 10645, 10647
 10650, 10654, 10680, 10685, 10686, 10688, 10689, 10693, 10694, 10699, 10700, 10704, 10706, 10707, 10709, 10714
 10719, 10722, 10726, 10730, 10731, 10733, 10734, 10735, 10740, 10742, 10744, 10748, 10756, 10758, 10759, 10761
 10763, 10766, 10768, 10771, 10774, 10785, 10786, 10791, 10793, 10795, 10803, 10805, 10818, 10820, 10831, 10837
 10838, 10842, 10843, 10853, 10861, 10862, 10878, 10880, 10894, 10896, 10898, 10901, 10904, 10906, 10909, 10911
 10912, 10914, 10916, 10923, 10954, 10959, 10960, 10963, 10966, 10970, 10974, 10981, 10984, 10992, 10998, 10999
 11005, 11009, 11025, 11030, 11036, 11038, 11040, 11042, 11044, 11051, 11054, 11057, 11058, 11063, 11065, 11067
** ... 714 like lines cut
*Elset, elset=_Surf-101_S2
    76,   116,   222,   263,   422,   548,   886,  1038,  1659,  1723,  1726,  1796,  2425,  2521,  2843,  3649
  3767,  3816,  4344,  6303,  7798,  9939, 10002, 10047, 10111, 10167, 10260, 10285, 10364, 10400, 10596, 10622
 10808, 10824, 10876, 10878, 10892, 10898, 10998, 11004, 11070, 11072, 11109, 11117, 11224, 11256, 11535, 11549
 12167, 12201, 12210, 12220, 12409, 12667, 12987, 13028, 13162, 13201, 13276, 13299, 13350, 13549, 13607, 13829
 13954, 13956, 13992, 14687, 14706, 14710, 14898, 14954, 14960, 14961, 14966, 14978, 15027, 15035, 15061, 15090
 15116, 15118, 15192, 15203, 15389, 15417, 15419, 15460, 15463, 15505, 15542, 15605, 15634, 15635, 15791, 15808
 15825, 15828, 15843, 15899, 15914, 15937, 16075, 16083, 16093, 16116, 16192, 16239, 16370, 16429, 16575, 16618
 16701, 16767, 17051, 17205, 17327, 17555, 17566, 17781, 17789, 17904, 17938, 17968, 18244, 18288, 18344, 18395
 18479, 18495, 18532, 18536, 18628, 18672, 18775, 18835, 18838, 19097, 19140, 19183, 19199, 19230, 19252, 19306
 19378, 19398, 19421, 19426, 19436, 19523, 19528, 19546, 19633, 19642, 19656, 19665, 19821, 19903, 19904, 19916
 19938, 19946, 19950, 19985, 20044, 20060, 20126, 20127, 20195, 20233, 20256, 20313, 20323, 20336, 20357, 20484
 20534, 20561, 20651, 20779, 21373, 21507, 21774, 21891, 22323, 22331, 22359, 22385, 22391, 22430, 22442, 22467
 22470, 22481, 22483, 22549, 22570, 22581, 22601, 22618, 22703, 22716, 22717, 22718, 22736, 22768, 22777, 22785
 22815, 22842, 22854, 22857, 22889, 22912, 22924, 22933, 22937, 22939, 22949, 22958, 22969, 22991, 23007, 23011
 23014, 23047, 23091, 23116, 23141, 23159, 23188, 23206, 23235, 23248, 23382, 23401, 23413, 23441, 23448, 23477
 23481, 23496, 23519, 23524, 23534, 23551, 23595, 23602, 23612, 23636, 23646, 23665, 23690, 23741, 24279, 24374
 24383, 24402, 24409, 24418, 24451, 24705, 24780, 24821, 24898, 24923, 24988, 25043, 25065, 25160, 25171, 25218
 25232, 25327, 25346, 25426, 25439, 25473, 25507, 25534, 25791, 25937, 25969, 25972, 25981, 25992, 26000, 26008
 26014, 26020, 26052, 26058, 26061, 26079, 26084, 26294, 26307, 26395, 26402, 26747, 26760, 26788, 26875, 26883
 26927, 26986, 27007, 27181, 27198, 27528, 27851, 28389, 28438, 28607, 28614, 28820, 28862, 28938, 28952, 29013
** ... 33 like lines cut
*Elset, elset=_Surf-101_S4
   242,   393,   541,   628,   731,  1189,  1396,  1592,  1629,  1659,  1720,  1799,  1969,  2177,  2392,  2489
  2852,  2930,  2951,  2964,  2999,  3025,  3063,  3165,  3197,  3226,  3386,  3421,  3539,  3587,  3668,  3925
  3996,  4484,  6444,  7351,  7928,  8538,  9394,  9901, 10012, 10065, 10149, 10156, 10486, 10491, 10511, 10609
 10661, 10682, 10778, 11148, 11478, 12024, 12099, 12353, 12357, 12414, 12420, 12511, 12616, 12617, 12753, 12824
 12827, 12905, 12920, 12964, 13073, 13074, 13223, 13287, 13441, 13625, 13727, 13899, 13919, 13955, 14039, 14138
 14690, 14698, 14797, 14808, 14825, 14839, 14957, 14978, 14981, 14991, 15048, 15126, 15139, 15212, 15254, 15302
 15316, 15363, 15416, 15551, 15666, 15691, 15715, 15862, 15877, 15986, 15989, 16001, 16036, 16222, 16261, 16739
 16848, 16988, 17141, 17145, 17208, 18149, 18174, 18306, 18509, 18606, 18643, 18648, 18777, 18782, 18828, 18850
 18890, 19095, 19126, 19307, 19406, 19463, 19469, 19494, 19556, 19564, 19607, 19961, 19975, 20016, 20051, 20059
 20192, 20193, 20200, 20383, 20657, 20673, 20779, 20838, 20856, 20882, 20910, 22202, 22266, 22278, 22295, 22325
 22333, 22352, 22417, 22429, 22440, 22610, 22626, 22707, 22719, 22720, 22737, 22776, 22813, 22837, 22914, 22916
 22957, 22975, 22980, 23002, 23021, 23026, 23032, 23073, 23086, 23111, 23128, 23159, 23229, 23234, 23239, 23315
 23328, 23331, 23353, 23355, 23371, 23384, 23452, 23512, 23519, 23526, 23573, 23580, 23608, 23618, 23656, 23683
 23693, 23751, 24045, 24155, 24244, 24247, 24356, 24400, 24419, 24724, 24885, 24887, 25171, 25426, 25466, 25498
 25608, 25626, 25704, 25750, 25764, 25767, 25783, 25970, 26032, 26042, 26044, 26078, 26081, 26086, 26100, 26170
 26189, 26414, 26906, 27121, 27182, 27266, 27339, 27371, 27406, 27552, 27604, 27818, 27864, 28206, 28354, 28529
 28553, 28637, 28650, 28781, 28898, 28994, 29010, 29074, 29119, 29129, 29172, 29441, 29443, 29470, 29474, 29523
 29545, 29593, 29598, 29604, 29607, 29620, 29637, 29680, 29755, 29766, 29768, 29795, 29829, 29844, 29845, 29852
 29866, 29869, 29886, 29892, 29895, 29905, 29907, 29930, 29946, 29947, 29958, 29971, 29984, 29994, 30011, 30020
 30030, 30039, 30048, 30067, 30071, 30093, 30101, 30128, 30155, 30173, 30180, 30181, 30249, 30250, 30267, 30277
** ... 30 like lines cut
*Elset, elset=_Surf-101_S1
   367,   747,   758,  2215,  2246,  2751,  3182,  3763,  3889,  3969,  5645,  5695,  6850,  7351,  7848, 10111
 10123, 10271, 10365, 10435, 10654, 10882, 11054, 11066, 11158, 11242, 11334, 11502, 11726, 11971, 12496, 12773
 12835, 12863, 13027, 13123, 13462, 13591, 13692, 13799, 13899, 13955, 13980, 14895, 15020, 15149, 15420, 15853
 15907, 15979, 16028, 16186, 16326, 17007, 17275, 17357, 18143, 18257, 18385, 18411, 18449, 18523, 18576, 18589
 18600, 18604, 18608, 18625, 18729, 18777, 18837, 18929, 19089, 19125, 19146, 19291, 19303, 19361, 19381, 19382
 19444, 19455, 19498, 19540, 19546, 19603, 19623, 19696, 19807, 19836, 19878, 19882, 19910, 19925, 19936, 19956
 19969, 19993, 20043, 20052, 20193, 20300, 20301, 20345, 20465, 20553, 20629, 20700, 20813, 21403, 22063, 22263
 22274, 22316, 22321, 22333, 22337, 22349, 22391, 22408, 22690, 22696, 22715, 22735, 22743, 22753, 22807, 22820
 22847, 22871, 22875, 22887, 22938, 22959, 22974, 22987, 22999, 23012, 23022, 23030, 23045, 23064, 23072, 23122
 23141, 23204, 23221, 23240, 23241, 23325, 23395, 23400, 23435, 23565, 23572, 23590, 23593, 23597, 23661, 23662
 23676, 23712, 23764, 24037, 24509, 24706, 24833, 25213, 25466, 25668, 25709, 25712, 25728, 25873, 25980, 26008
 26041, 26050, 26052, 26059, 26061, 26084, 26091, 26094, 26162, 26471, 26568, 26660, 26662, 26668, 26761, 26809
 26899, 26921, 26927, 26928, 26995, 27151, 27338, 27377, 27485, 27653, 27820, 28025, 28438, 28940, 29016, 29020
 29048, 29108, 29112, 29422, 29423, 29437, 29438, 29459, 29463, 29465, 29483, 29495, 29511, 29512, 29513, 29547
 29564, 29629, 29636, 29652, 29654, 29668, 29705, 29708, 29731, 29764, 29773, 29822, 29835, 29866, 29897, 29903
 29910, 29911, 29936, 29938, 29942, 29954, 29962, 29969, 29982, 30017, 30018, 30023, 30037, 30047, 30060, 30065
 30074, 30075, 30080, 30081, 30097, 30105, 30118, 30139, 30154, 30166, 30177, 30190, 30196, 30217, 30227, 30255
 30260, 30263, 30306, 30317, 30333, 30359, 30569, 30658, 30690, 30762, 30779, 30819, 30897, 31099, 31116, 31386
 31541, 31920, 31973, 31999, 32181, 32263, 32358, 32451, 32687, 32746, 32906, 32942, 32943, 33630, 33633, 33682
 33837, 34004, 34080, 34390, 34691, 35187, 35201, 35390, 35447, 35543, 35619, 35685, 35843, 36182, 36468, 36606
** ... 27 like lines cut
*Surface, type=ELEMENT, name=Surf-101
_Surf-101_S3, S3
_Surf-101_S2, S2
_Surf-101_S4, S4
_Surf-101_S1, S1
*Material, name=Material-1
*Conductivity
 12.2357, 25.
 12.3145, 30.
 12.3931, 35.
 12.4717, 40.
 12.5501, 45.
 12.6285, 50.
 12.7068, 55.
  12.785, 60.
 12.8632, 65.
 12.9413, 70.
 13.0193, 75.
 13.0972, 80.
 13.1751, 85.
 13.2529, 90.
 13.3307, 95.
 13.4084,100.
 13.4861,105.
 13.5637,110.
 13.6413,115.
 13.7188,120.
** ... 156 like lines cut
*Density
7940., 25.
7940., 30.
7940., 35.
7940., 40.
7930., 45.
7930., 50.
7930., 55.
7930., 60.
7930., 65.
7920., 70.
7920., 75.
7920., 80.
7920., 85.
7920., 90.
7910., 95.
7910.,100.
7910.,105.
7910.,110.
7900.,115.
7900.,120.
** ... 156 like lines cut
*Elastic
 1.98e+11, 0.3, 25.
 1.97e+11, 0.3, 30.
 1.97e+11, 0.3, 35.
 1.97e+11, 0.3, 40.
 1.96e+11, 0.3, 45.
 1.96e+11, 0.3, 50.
 1.96e+11, 0.3, 55.
 1.95e+11, 0.3, 60.
 1.95e+11, 0.3, 65.
 1.95e+11, 0.3, 70.
 1.94e+11, 0.3, 75.
 1.94e+11, 0.3, 80.
 1.94e+11, 0.3, 85.
 1.94e+11, 0.3, 90.
 1.93e+11, 0.3, 95.
 1.93e+11, 0.3,100.
 1.93e+11, 0.3,105.
 1.92e+11, 0.3,110.
 1.92e+11, 0.3,115.
 1.92e+11, 0.3,120.
** ... 156 like lines cut
*Expansion
 1.68e-05, 20.
 1.77e-05,100.
 1.77e-05,500.
 1.74e-05,650.
 1.85e-05,750.
 1.94e-05,950.
*Plastic
 8.16831e+08,   0.,  25.
   9.996e+08, 0.02,  25.
 1.07807e+09, 0.04,  25.
 1.12393e+09, 0.06,  25.
 1.15689e+09, 0.08,  25.
 1.18281e+09,  0.1,  25.
 1.20426e+09, 0.12,  25.
  1.2226e+09, 0.14,  25.
*Specific Heat
 436.98, 30.
 438.24, 35.
 439.48, 40.
 440.69, 45.
 441.89, 50.
 443.08, 55.
 444.24, 60.
 445.39, 65.
 446.52, 70.
 447.64, 75.
 448.74, 80.
 449.83, 85.
  450.9, 90.
 451.96, 95.
 453.01,100.
 454.05,105.
 455.07,110.
 456.08,115.
 457.09,120.
 458.08,125.
** ... 155 like lines cut
*PHASECURVE,type=TTT
1,1,0,0,1.0
1,2,0,0,1.0
2,1,23,0.005,0
8044.8,600
6744.68,610
5679.88,620
4802.96,630
4077.02,640
3473.17,650
2968.74,660
2545.92,670
2190.53,680
1891.34,690
1639.56,700
1427.61,710
1249.94,720
1101.96,730
980.04,740
881.65,750
804.84,760
** ... 84 like lines cut
*PHASEEQUILIBRIUM
2,17
338.272,0.0681988
360.601,0.0673724
387.225,0.063127
421.363,0.0655851
437.681,0.0645386
459.367,0.0633712
489.211,0.060142
519.27,0.0579383
536.232,0.0550675
561.997,0.0519576
594.418,0.0456482
626.838,0.0386551
650.671,0.0330405
670.424,0.0257217
699.624,0.017707
720.236,0.0093132
733.548,0.00558377
3,14
600,0.079123112
** ... 13 like lines cut
*PHASECTROL
1,0,0,0,0
** PHYSICAL CONSTANTS
** 
*Physical Constants, absolute zero=-273.15, stefan boltzmann=5.6704e-08
** 
*Boundary
XYZ, 1, 1
XYZ, 2, 2
XYZ, 3, 3
** Name: BC-2 Type: Displacement/Rotation
*Boundary
YZ, 2, 2
YZ, 3, 3
** Name: BC-3 Type: Displacement/Rotation
*Boundary
X, 1, 1
** 
** PREDEFINED FIELDS
** 
** Name: Predefined Field-1   Type: Temperature
*Initial Conditions, type=TEMPERATURE
Set-1, 900.
*TIME POINTS,NAME=T10,GENERATE
0,1200,10
** ----------------------------------------------------------------
** 
** STEP: Step-1
** 
*Step, name=Step-1, nlgeom=YES, inc=10000000
*Coupled Temperature-displacement, deltmx=5.
0.1, 1200., 1e-08, 20.
*film
_Surf-101_S3, F3, 40., 400
_Surf-101_S2, F2, 40., 400
_Surf-101_S4, F4, 40., 400
_Surf-101_S1, F1, 40., 400
*radiate
_Surf-101_S3, R3, 40., 0.8
_Surf-101_S2, R2, 40., 0.8
_Surf-101_S4, R4, 40., 0.8
_Surf-101_S1, R1, 40., 0.8
*NODE FILE,TIME POINTS=T10
U,NT
*EL FILE,TIME POINTS=T10
S,E,SDV
*End Step

